Conversion/opendss_conversion/dss_files/net_2_Rural_KLO14/10_Loads.dss
New Load.mv_f0_lv0_f0_c0 phases=1 bus1=mv_f0_lv0_f0_c0.1 kw=1 conn=wye kv=0.23 pf=0.95 model=1 vminpu=0.0 vmaxpu=2 status=variable daily=Load_shape_res_0 enabled=true
New Load.mv_f0_lv0_f0_c1 phases=1 bus1=mv_f0_lv0_f0_c1.1 kw=1 conn=wye kv=0.23 pf=0.95 model=1 vminpu=0.0 vmaxpu=2 status=variable daily=Load_shape_res_1 enabled=true
New Load.mv_f0_lv0_f0_c2 phases=1 bus1=mv_f0_lv0_f0_c2.1 kw=1 conn=wye kv=0.23 pf=0.95 model=1 vminpu=0.0 vmaxpu=2 status=variable daily=Load_shape_res_2 enabled=true
New Load.mv_f0_lv0_f0_c3 phases=1 bus1=mv_f0_lv0_f0_c3.1 kw=1 conn=wye kv=0.23 pf=0.95 model=1 vminpu=0.0 vmaxpu=2 status=variable daily=Load_shape_res_3 enabled=true
New Load.mv_f0_lv0_f0_c4 phases=1 bus1=mv_f0_lv0_f0_c4.1 kw=1 conn=wye kv=0.23 pf=0.95 model=1 vminpu=0.0 vmaxpu=2 status=variable daily=Load_shape_res_4 enabled=true
New Load.mv_f0_lv0_f0_c5 phases=1 bus1=mv_f0_lv0_f0_c5.1 kw=1 conn=wye kv=0.23 pf=0.95 model=1 vminpu=0.0 vmaxpu=2 status=variable daily=Load_shape_res_5 enabled=true
New Load.mv_f0_lv0_f0_c6 phases=1 bus1=mv_f0_lv0_f0_c6.1 kw=1 conn=wye kv=0.23 pf=0.95 model=1 vminpu=0.0 vmaxpu=2 status=variable daily=Load_shape_res_6 enabled=true
New Load.mv_f0_lv1_f0_c0 phases=1 bus1=mv_f0_lv1_f0_c0.1 kw=1 conn=wye kv=0.23 pf=0.95 model=1 vminpu=0.0 vmaxpu=2 status=variable daily=Load_shape_res_7 enabled=true
New Load.mv_f0_lv1_f0_c1 phases=1 bus1=mv_f0_lv1_f0_c1.1 kw=1 conn=wye kv=0.23 pf=0.95 model=1 vminpu=0.0 vmaxpu=2 status=variable daily=Load_shape_res_8 enabled=true
New Load.mv_f0_lv2_f0_c0 phases=1 bus1=mv_f0_lv2_f0_c0.1 kw=1 conn=wye kv=0.23 pf=0.95 model=1 vminpu=0.0 vmaxpu=2 status=variable daily=Load_shape_res_9 enabled=true
New Load.mv_f0_lv3_f0_c0 phases=1 bus1=mv_f0_lv3_f0_c0.1 kw=1 conn=wye kv=0.23 pf=0.95 model=1 vminpu=0.0 vmaxpu=2 status=variable daily=Load_shape_res_10 enabled=true
New Load.mv_f0_lv3_f0_c1 phases=1 bus1=mv_f0_lv3_f0_c1.1 kw=1 conn=wye kv=0.23 pf=0.95 model=1 vminpu=0.0 vmaxpu=2 status=variable daily=Load_shape_res_11 enabled=true
New Load.mv_f0_lv3_f0_c2 phases=1 bus1=mv_f0_lv3_f0_c2.1 kw=1 conn=wye kv=0.23 pf=0.95 model=1 vminpu=0.0 vmaxpu=2 status=variable daily=Load_shape_res_12 enabled=true
New Load.mv_f0_lv4_f0_c0 phases=1 bus1=mv_f0_lv4_f0_c0.1 kw=1 conn=wye kv=0.23 pf=0.95 model=1 vminpu=0.0 vmaxpu=2 status=variable daily=Load_shape_res_13 enabled=true
New Load.mv_f0_lv4_f0_c1 phases=1 bus1=mv_f0_lv4_f0_c1.1 kw=1 conn=wye kv=0.23 pf=0.95 model=1 vminpu=0.0 vmaxpu=2 status=variable daily=Load_shape_res_14 enabled=true
New Load.mv_f0_lv5_f0_c0 phases=1 bus1=mv_f0_lv5_f0_c0.1 kw=1 conn=wye kv=0.23 pf=0.95 model=1 vminpu=0.0 vmaxpu=2 status=variable daily=Load_shape_res_15 enabled=true
New Load.mv_f0_lv6_f0_c0 phases=1 bus1=mv_f0_lv6_f0_c0.1 kw=1 conn=wye kv=0.23 pf=0.95 model=1 vminpu=0.0 vmaxpu=2 status=variable daily=Load_shape_res_16 enabled=true
New Load.mv_f0_lv6_f0_c1 phases=1 bus1=mv_f0_lv6_f0_c1.1 kw=1 conn=wye kv=0.23 pf=0.95 model=1 vminpu=0.0 vmaxpu=2 status=variable daily=Load_shape_res_17 enabled=true
New Load.mv_f0_lv7_f0_c0 phases=1 bus1=mv_f0_lv7_f0_c0.1 kw=1 conn=wye kv=0.23 pf=0.95 model=1 vminpu=0.0 vmaxpu=2 status=variable daily=Load_shape_res_18 enabled=true
New Load.mv_f0_lv7_f0_c1 phases=1 bus1=mv_f0_lv7_f0_c1.1 kw=1 conn=wye kv=0.23 pf=0.95 model=1 vminpu=0.0 vmaxpu=2 status=variable daily=Load_shape_res_19 enabled=true
New Load.mv_f0_lv7_f0_c2 phases=1 bus1=mv_f0_lv7_f0_c2.1 kw=1 conn=wye kv=0.23 pf=0.95 model=1 vminpu=0.0 vmaxpu=2 status=variable daily=Load_shape_res_20 enabled=true
New Load.mv_f0_lv7_f0_c3 phases=1 bus1=mv_f0_lv7_f0_c3.1 kw=1 conn=wye kv=0.23 pf=0.95 model=1 vminpu=0.0 vmaxpu=2 status=variable daily=Load_shape_res_21 enabled=true
New Load.mv_f0_lv8_f0_c0 phases=1 bus1=mv_f0_lv8_f0_c0.1 kw=1 conn=wye kv=0.23 pf=0.95 model=1 vminpu=0.0 vmaxpu=2 status=variable daily=Load_shape_res_22 enabled=true
New Load.mv_f0_lv8_f0_c1 phases=1 bus1=mv_f0_lv8_f0_c1.1 kw=1 conn=wye kv=0.23 pf=0.95 model=1 vminpu=0.0 vmaxpu=2 status=variable daily=Load_shape_res_23 enabled=true
New Load.mv_f0_lv8_f0_c2 phases=1 bus1=mv_f0_lv8_f0_c2.1 kw=1 conn=wye kv=0.23 pf=0.95 model=1 vminpu=0.0 vmaxpu=2 status=variable daily=Load_shape_res_24 enabled=true
New Load.mv_f0_lv9_f0_c0 phases=1 bus1=mv_f0_lv9_f0_c0.1 kw=1 conn=wye kv=0.23 pf=0.95 model=1 vminpu=0.0 vmaxpu=2 status=variable daily=Load_shape_res_25 enabled=true
New Load.mv_f0_lv9_f0_c1 phases=1 bus1=mv_f0_lv9_f0_c1.1 kw=1 conn=wye kv=0.23 pf=0.95 model=1 vminpu=0.0 vmaxpu=2 status=variable daily=Load_shape_res_26 enabled=true
New Load.mv_f0_lv10_f0_c0 phases=1 bus1=mv_f0_lv10_f0_c0.2 kw=1 conn=wye kv=0.23 pf=0.95 model=1 vminpu=0.0 vmaxpu=2 status=variable daily=Load_shape_res_27 enabled=true
New Load.mv_f0_lv10_f0_c1 phases=1 bus1=mv_f0_lv10_f0_c1.3 kw=1 conn=wye kv=0.23 pf=0.95 model=1 vminpu=0.0 vmaxpu=2 status=variable daily=Load_shape_res_28 enabled=true
...