Conversion/opendss_conversion/dss_files/net_2_Rural_KLO14/Circuit_EXP_VOLTAGES.CSV
Bus, BasekV, Node1, Magnitude1, Angle1, pu1, Node2, Magnitude2, Angle2, pu2, Node3, Magnitude3, Angle3, pu3
"SOURCEBUS", 66, 1,    38104.1,   -0.1,   0.99997, 2,    38107.1, -120.1,    1.0001, 3,    38105.9,  119.9,         1
"MV_F0_N4169", 22, 1,      13221,  -30.1,    1.0409, 2,    13221.5, -150.1,    1.0409, 3,    13222.1,   89.9,     1.041
"MV_F0_N1070", 22, 1,    12773.2,  -33.8,    1.0056, 2,    12793.2, -153.5,    1.0072, 3,    12837.2,   86.3,    1.0107
"MV_F0_N1092", 22, 1,    12773.2,  -33.8,    1.0056, 2,    12793.2, -153.5,    1.0072, 3,    12837.2,   86.3,    1.0107
"MV_F0_N3775", 22, 1,    12757.9,  -33.3,    1.0044, 2,    12770.5, -153.0,    1.0054, 3,      12814,   86.8,    1.0088
"MV_F0_N3759", 22, 1,    12757.6,  -33.3,    1.0044, 2,    12770.2, -153.0,    1.0054, 3,    12813.7,   86.8,    1.0088
"MV_F0_N1667", 22, 1,    13071.4,  -31.9,    1.0291, 2,    13096.5, -151.9,    1.0311, 3,      13084,   88.0,    1.0301
"MV_F0_N459", 22, 1,    13070.4,  -32.0,     1.029, 2,    13095.8, -152.0,     1.031, 3,    13082.9,   88.0,      1.03
"MV_F0_N1547", 22, 1,      13003,   -2.0,    1.0237, 0, 0, 0, 0, 0, 0, 0, 0
"MV_F0_N2734", 22, 1,    13000.3,   -2.0,    1.0235, 0, 0, 0, 0, 0, 0, 0, 0
"MV_F0_N2538", 22, 1,      12757,  -33.3,    1.0044, 2,    12769.9, -153.0,    1.0054, 3,    12813.4,   86.8,    1.0088
"MV_F0_N2974", 22, 1,    12774.3,  -33.8,    1.0057, 2,    12794.3, -153.5,    1.0073, 3,    12838.5,   86.3,    1.0108
"MV_F0_N3001", 22, 1,    12774.2,  -33.8,    1.0057, 2,    12794.2, -153.5,    1.0073, 3,    12838.3,   86.3,    1.0108
"MV_F0_N1844", 22, 1,    12575.9, -122.7,   0.99009, 0, 0, 0, 0, 0, 0, 0, 0
"MV_F0_N3396", 22, 1,    12575.6, -122.7,   0.99007, 0, 0, 0, 0, 0, 0, 0, 0
"MV_F0_N1715", 22, 1,    13116.9,  -32.1,    1.0327, 2,    13136.9, -152.0,    1.0343, 3,    13143.8,   87.8,    1.0348
"MV_F0_N3387", 22, 1,    13116.9,  -32.1,    1.0327, 2,      13137, -152.1,    1.0343, 3,    13144.3,   87.8,    1.0348
"MV_F0_N620", 22, 1,    13185.2,  -30.5,    1.0381, 2,    13188.6, -150.5,    1.0383, 3,      13190,   89.5,    1.0384
"MV_F0_N1205", 22, 1,    13184.3,  -30.5,     1.038, 2,    13187.8, -150.5,    1.0383, 3,    13189.3,   89.5,    1.0384
"MV_F0_N2360", 22, 1,      13117,  -32.2,    1.0327, 2,    13137.1, -152.1,    1.0343, 3,    13144.8,   87.8,    1.0349
"MV_F0_N1105", 22, 1,    12773.1,  -33.8,    1.0056, 2,    12793.2, -153.5,    1.0072, 3,    12837.1,   86.3,    1.0107
"MV_F0_N1081", 22, 1,    12773.1,  -33.8,    1.0056, 2,    12793.2, -153.5,    1.0072, 3,    12837.1,   86.3,    1.0107
"MV_F0_N4079", 22, 1,    12362.7,  -33.6,   0.97331, 2,    12507.2, -153.4,   0.98468, 3,    12483.5,   85.9,   0.98282
"MV_F0_N748", 22, 1,    12360.7,  -33.6,   0.97315, 2,      12506, -153.4,   0.98459, 3,    12481.5,   85.9,   0.98266
"MV_F0_N475", 22, 1,    13069.5,  -32.0,     1.029, 2,    13095.2, -152.0,     1.031, 3,      13082,   87.9,    1.0299
"MV_F0_N449", 22, 1,    13068.6,  -32.0,    1.0289, 2,    13094.6, -152.0,    1.0309, 3,    13081.1,   87.9,    1.0299
"MV_F0_N2350", 22, 1,    12376.4,  116.5,   0.97439, 0, 0, 0, 0, 0, 0, 0, 0
"MV_F0_N2313", 22, 1,    12376.4,  116.5,   0.97439, 0, 0, 0, 0, 0, 0, 0, 0
"MV_F0_N1360", 22, 1,    12772.5,  -33.8,    1.0056, 2,    12792.6, -153.5,    1.0072, 3,    12836.5,   86.3,    1.0106
"MV_F0_N148", 22, 1,    12772.4,  -33.8,    1.0056, 2,    12792.4, -153.5,    1.0071, 3,    12836.4,   86.3,    1.0106
"MV_F0_N2718", 22, 1,    13052.2,   -1.9,    1.0276, 0, 0, 0, 0, 0, 0, 0, 0
"MV_F0_N1562", 22, 1,    13038.3,   -1.9,    1.0265, 0, 0, 0, 0, 0, 0, 0, 0
"MV_F0_N3325", 22, 1,      12280,  -33.5,    0.9668, 2,    12481.9, -153.4,    0.9827, 3,    12413.4,   85.8,    0.9773
"MV_F0_N2741", 22, 1,    12279.9,  -33.5,   0.96679, 2,    12481.8, -153.4,   0.98268, 3,    12413.3,   85.8,   0.97729
"MV_F0_N1832", 22, 1,    12614.4, -122.6,   0.99313, 0, 0, 0, 0, 0, 0, 0, 0
"MV_F0_N1857", 22, 1,    12606.4, -122.6,    0.9925, 0, 0, 0, 0, 0, 0, 0, 0
"MV_F0_N2782", 22, 1,    12675.5,  -33.8,   0.99794, 2,    12724.2, -153.5,    1.0018, 3,    12759.8,   86.2,    1.0046
"MV_F0_N434", 22, 1,    12675.6,  -33.8,   0.99794, 2,    12724.3, -153.5,    1.0018, 3,    12759.8,   86.2,    1.0046
"MV_F0_N3774", 22, 1,    12770.8,  -33.8,    1.0054, 2,    12790.7, -153.5,     1.007, 3,    12837.8,   86.3,    1.0107
"MV_F0_N61", 22, 1,    12770.8,  -33.8,    1.0054, 2,    12790.7, -153.5,     1.007, 3,    12837.7,   86.3,    1.0107
"MV_F0_N3011", 22, 1,      12774,  -33.8,    1.0057, 2,    12794.1, -153.5,    1.0073, 3,    12838.2,   86.3,    1.0107
"MV_F0_N1185", 22, 1,    11724.2,  -63.1,   0.92304, 0, 0, 0, 0, 0, 0, 0, 0
"MV_F0_N1270", 22, 1,    11720.5,  -63.1,   0.92275, 0, 0, 0, 0, 0, 0, 0, 0
"MV_F0_N2271", 22, 1,      13127,  -31.6,    1.0335, 2,    13124.7, -151.5,    1.0333, 3,    13135.6,   88.5,    1.0342
"MV_F0_N3442", 22, 1,      13127,  -31.6,    1.0335, 2,    13124.7, -151.5,    1.0333, 3,    13135.5,   88.5,    1.0342
"MV_F0_N906", 22, 1,    12374.4,  -33.6,   0.97423, 2,    12514.1, -153.3,   0.98523, 3,    12495.4,   86.0,   0.98376
"MV_F0_N4093", 22, 1,    12368.5,  -33.6,   0.97377, 2,    12510.6, -153.3,   0.98496, 3,    12489.5,   86.0,   0.98329
"MV_F0_N2788", 22, 1,    12229.1,  -62.6,   0.96279, 0, 0, 0, 0, 0, 0, 0, 0
"MV_F0_N2520", 22, 1,    12228.6,  -62.6,   0.96275, 0, 0, 0, 0, 0, 0, 0, 0
"MV_F0_N1771", 22, 1,    12799.5,  -33.3,    1.0077, 2,    12813.2, -153.1,    1.0088, 3,    12845.2,   86.8,    1.0113
"MV_F0_N1752", 22, 1,    12799.5,  -33.3,    1.0077, 2,    12812.3, -153.1,    1.0087, 3,    12844.4,   86.8,    1.0112
"MV_F0_N840", 22, 1,    12773.1,  -33.8,    1.0056, 2,    12793.1, -153.5,    1.0072, 3,    12837.1,   86.3,    1.0107
"MV_F0_N1372", 22, 1,    12772.9,  -33.8,    1.0056, 2,      12793, -153.5,    1.0072, 3,    12836.9,   86.3,    1.0106
"MV_F0_N1116", 22, 1,    12773.1,  -33.8,    1.0056, 2,    12793.2, -153.5,    1.0072, 3,    12837.1,   86.3,    1.0107
"MV_F0_N3485", 22, 1,    12799.5,  -33.3,    1.0077, 2,    12813.3, -153.1,    1.0088, 3,    12845.3,   86.8,    1.0113
"MV_F0_N489", 22, 1,      13201,  -30.3,    1.0393, 2,    13202.8, -150.3,    1.0394, 3,    13203.6,   89.7,    1.0395
"MV_F0_N457", 22, 1,    13199.4,  -30.3,    1.0392, 2,    13201.4, -150.3,    1.0393, 3,    13202.3,   89.7,    1.0394
"MV_F0_N2175", 22, 1,    12779.7,  -33.7,    1.0061, 2,    12798.7, -153.4,    1.0076, 3,    12843.1,   86.3,    1.0111
"MV_F0_N676", 22, 1,    12779.6,  -33.7,    1.0061, 2,    12798.5, -153.4,    1.0076, 3,      12843,   86.3,    1.0111
"MV_F0_N1988", 22, 1,    13208.5,  -30.2,    1.0399, 2,    13209.6, -150.2,      1.04, 3,    13210.1,   89.8,      1.04
"MV_F0_N601", 22, 1,    13208.5,  -30.2,    1.0399, 2,    13209.6, -150.2,      1.04, 3,    13210.1,   89.8,      1.04
"MV_F0_N3104", 22, 1,    12777.2,  -33.7,    1.0059, 2,    12796.8, -153.4,    1.0075, 3,    12841.4,   86.3,     1.011
"MV_F0_N2612", 22, 1,    12777.2,  -33.7,    1.0059, 2,    12796.8, -153.4,    1.0075, 3,    12841.4,   86.3,     1.011
"MV_F0_N2802", 22, 1,      12996,   -2.0,    1.0232, 0, 0, 0, 0, 0, 0, 0, 0
"MV_F0_N2779", 22, 1,      12996,   -2.0,    1.0232, 0, 0, 0, 0, 0, 0, 0, 0
"MV_F0_N2295", 22, 1,    13116.8,  -32.0,    1.0327, 2,    13136.4, -151.9,    1.0342, 3,      13141,   87.9,    1.0346
"MV_F0_N2291", 22, 1,    13116.7,  -32.0,    1.0327, 2,    13136.4, -151.9,    1.0342, 3,    13140.9,   87.9,    1.0346
"MV_F0_N3582", 22, 1,    11837.7,  -62.7,   0.93198, 0, 0, 0, 0, 0, 0, 0, 0
"MV_F0_N2163", 22, 1,    11837.7,  -62.7,   0.93198, 0, 0, 0, 0, 0, 0, 0, 0
"MV_F0_N432", 22, 1,    12773.1,  -33.8,    1.0056, 2,    12793.1, -153.5,    1.0072, 3,    12837.1,   86.3,    1.0107
"MV_F0_N429", 22, 1,    12773.1,  -33.8,    1.0056, 2,    12793.1, -153.5,    1.0072, 3,    12837.1,   86.3,    1.0107
"MV_F0_N2816", 22, 1,      12996,   -2.0,    1.0232, 0, 0, 0, 0, 0, 0, 0, 0
"MV_F0_N4091", 22, 1,    12572.9,   -3.7,   0.98986, 0, 0, 0, 0, 0, 0, 0, 0
"MV_F0_N4119", 22, 1,    12572.9,   -3.7,   0.98986, 0, 0, 0, 0, 0, 0, 0, 0
"MV_F0_N4085", 22, 1,    12775.2,  -33.7,    1.0058, 2,    12795.2, -153.5,    1.0074, 3,    12839.5,   86.3,    1.0108
"MV_F0_N3682", 22, 1,    12775.1,  -33.7,    1.0058, 2,      12795, -153.5,    1.0073, 3,    12839.4,   86.3,    1.0108
"MV_F0_N1436", 22, 1,    12773.2,  -33.3,    1.0056, 2,    12797.7, -153.0,    1.0076, 3,      12829,   86.8,      1.01
"MV_F0_N1672", 22, 1,    12772.9,  -33.3,    1.0056, 2,    12797.7, -153.0,    1.0076, 3,    12828.6,   86.8,      1.01
"MV_F0_N981", 22, 1,    12490.6,  -33.7,   0.98338, 2,    12589.2, -153.4,   0.99114, 3,    12607.3,   86.1,   0.99257
"MV_F0_N4131", 22, 1,    12490.5,  -33.7,   0.98337, 2,    12589.1, -153.4,   0.99114, 3,    12607.3,   86.1,   0.99256
"MV_F0_N2329", 22, 1,    13116.8,  -32.1,    1.0327, 2,    13136.5, -152.0,    1.0342, 3,    13141.8,   87.9,    1.0347
"MV_F0_N2323", 22, 1,    13116.8,  -32.1,    1.0327, 2,    13136.5, -152.0,    1.0342, 3,    13141.8,   87.9,    1.0347
"MV_F0_N377", 22, 1,    12773.3,  -33.8,    1.0056, 2,    12793.4, -153.5,    1.0072, 3,    12837.4,   86.3,    1.0107
"MV_F0_N2424", 22, 1,    12773.2,  -33.8,    1.0056, 2,    12793.2, -153.5,    1.0072, 3,    12837.2,   86.3,    1.0107
"MV_F0_N640", 22, 1,    12490.4,  -33.7,   0.98337, 2,      12589, -153.4,   0.99113, 3,    12607.2,   86.1,   0.99256
"MV_F0_N2222", 22, 1,    12460.9,  -32.8,   0.98104, 2,    12651.6, -153.0,   0.99606, 3,    12519.6,   86.3,   0.98566
"MV_F0_N1448", 22, 1,    12460.8,  -32.8,   0.98103, 2,    12651.7, -153.0,   0.99606, 3,    12519.5,   86.3,   0.98565
"MV_F0_N1115", 22, 1,    13032.5,   -1.9,     1.026, 0, 0, 0, 0, 0, 0, 0, 0
"MV_F0_N1585", 22, 1,    13031.2,   -1.9,    1.0259, 0, 0, 0, 0, 0, 0, 0, 0
"MV_F0_N3382", 22, 1,    12345.7,  116.4,   0.97197, 0, 0, 0, 0, 0, 0, 0, 0
"MV_F0_N3866", 22, 1,    12345.7,  116.4,   0.97197, 0, 0, 0, 0, 0, 0, 0, 0
"MV_F0_N1423", 22, 1,    12773.9,  -33.3,    1.0057, 2,    12797.7, -153.0,    1.0076, 3,    12829.8,   86.8,    1.0101
"MV_F0_N1737", 22, 1,    12773.5,  -33.3,    1.0057, 2,    12797.7, -153.0,    1.0076, 3,    12829.4,   86.8,    1.0101
"MV_F0_N3861", 22, 1,    12572.8,   -3.7,   0.98985, 0, 0, 0, 0, 0, 0, 0, 0
"MV_F0_N417", 22, 1,    12567.6,   -3.7,   0.98944, 0, 0, 0, 0, 0, 0, 0, 0
"MV_F0_N3944", 22, 1,    12379.8,  116.5,   0.97466, 0, 0, 0, 0, 0, 0, 0, 0
"MV_F0_N3795", 22, 1,    12379.8,  116.5,   0.97466, 0, 0, 0, 0, 0, 0, 0, 0
"MV_F0_N4084", 22, 1,    11727.4,  -63.1,   0.92329, 0, 0, 0, 0, 0, 0, 0, 0
"MV_F0_N1559", 22, 1,    11726.9,  -63.1,   0.92325, 0, 0, 0, 0, 0, 0, 0, 0
"MV_F0_N1319", 22, 1,    12796.3,  -33.3,    1.0074, 2,    12823.8, -153.1,    1.0096, 3,    12850.1,   86.7,    1.0117
"MV_F0_N1708", 22, 1,    12796.3,  -33.3,    1.0074, 2,    12823.8, -153.1,    1.0096, 3,    12850.1,   86.7,    1.0117
"MV_F0_N71", 22, 1,      13098,  -32.5,    1.0312, 2,    13113.7, -152.3,    1.0324, 3,    13140.4,   87.5,    1.0345
"MV_F0_N82", 22, 1,    13096.5,  -32.5,    1.0311, 2,    13112.4, -152.3,    1.0323, 3,    13140.4,   87.5,    1.0345
"MV_F0_N2357", 22, 1,      13117,  -32.2,    1.0327, 2,    13137.1, -152.1,    1.0343, 3,    13144.8,   87.8,    1.0349
"MV_F0_N3057", 22, 1,    12756.9,  -33.7,    1.0043, 2,    12780.5, -153.5,    1.0062, 3,    12815.8,   86.3,     1.009
"MV_F0_N3530", 22, 1,    12755.1,  -33.7,    1.0042, 2,      12779, -153.5,    1.0061, 3,    12813.2,   86.3,    1.0088
"MV_F0_N1353", 22, 1,    12796.2,  -33.3,    1.0074, 2,    12823.8, -153.1,    1.0096, 3,      12850,   86.7,    1.0117
"MV_F0_N3063", 22, 1,    13099.9,  -32.5,    1.0313, 2,    13115.4, -152.3,    1.0326, 3,    13140.4,   87.5,    1.0345
"MV_F0_N699", 22, 1,    12779.5,  -33.7,    1.0061, 2,    12798.4, -153.4,    1.0076, 3,    12842.9,   86.3,    1.0111
"MV_F0_N561", 22, 1,    12773.2,  -33.8,    1.0056, 2,    12793.3, -153.5,    1.0072, 3,    12837.2,   86.3,    1.0107
"MV_F0_N3468", 22, 1,    12773.1,  -33.8,    1.0056, 2,    12793.2, -153.5,    1.0072, 3,    12837.2,   86.3,    1.0107
"MV_F0_N3469", 22, 1,      11845,  -62.7,   0.93255, 0, 0, 0, 0, 0, 0, 0, 0
"MV_F0_N3507", 22, 1,    11840.8,  -62.7,   0.93222, 0, 0, 0, 0, 0, 0, 0, 0
"MV_F0_N871", 22, 1,    12481.3,  -33.7,   0.98265, 2,    12583.1, -153.4,   0.99066, 3,    12598.3,   86.1,   0.99186
"MV_F0_N688", 22, 1,    12481.3,  -33.7,   0.98265, 2,    12582.7, -153.4,   0.99063, 3,      12598,   86.1,   0.99184
"MV_F0_N1398", 22, 1,    12772.8,  -33.8,    1.0056, 2,    12792.8, -153.5,    1.0072, 3,    12836.8,   86.3,    1.0106
"MV_F0_N1802", 22, 1,      12763,  -33.7,    1.0048, 2,    12785.5, -153.5,    1.0066, 3,    12824.3,   86.3,    1.0096
"MV_F0_N3191", 22, 1,    12762.9,  -33.7,    1.0048, 2,    12785.4, -153.5,    1.0066, 3,    12824.2,   86.3,    1.0096
"MV_F0_N3472", 22, 1,      11849,  -62.7,   0.93287, 0, 0, 0, 0, 0, 0, 0, 0
"MV_F0_N3268", 22, 1,    11797.5,  -63.1,   0.92882, 0, 0, 0, 0, 0, 0, 0, 0
"MV_F0_N2224", 22, 1,    11796.1,  -63.1,    0.9287, 0, 0, 0, 0, 0, 0, 0, 0
"MV_F0_N1487", 22, 1,    12459.3,  -32.8,   0.98091, 2,    12651.7, -153.0,   0.99606, 3,      12518,   86.3,   0.98553
"MV_F0_N3265", 22, 1,      12459,  -32.8,   0.98089, 2,    12651.7, -153.0,   0.99606, 3,    12517.7,   86.3,   0.98551
"MV_F0_N338", 22, 1,      12763,  -33.7,    1.0048, 2,    12785.5, -153.5,    1.0066, 3,    12824.3,   86.3,    1.0097
"MV_F0_N2923", 22, 1,    12626.9, -122.6,   0.99411, 0, 0, 0, 0, 0, 0, 0, 0
"MV_F0_N2905", 22, 1,    12626.4, -122.6,   0.99408, 0, 0, 0, 0, 0, 0, 0, 0
"MV_F0_N312", 22, 1,    11800.4,  -63.1,   0.92904, 0, 0, 0, 0, 0, 0, 0, 0
"MV_F0_N1451", 22, 1,    12458.5,  -32.8,   0.98086, 2,    12651.7, -153.0,   0.99606, 3,    12517.3,   86.3,   0.98548
"MV_F0_N1444", 22, 1,    12268.9,  -33.5,   0.96593, 2,    12480.5, -153.3,   0.98259, 3,    12407.1,   85.7,    0.9768
"MV_F0_N373", 22, 1,    12268.6,  -33.5,    0.9659, 2,    12480.2, -153.3,   0.98256, 3,    12407.1,   85.7,    0.9768
"MV_F0_N2862", 22, 1,    12997.2,   -2.0,    1.0233, 0, 0, 0, 0, 0, 0, 0, 0
"MV_F0_N3532", 22, 1,    12996.2,   -2.0,    1.0232, 0, 0, 0, 0, 0, 0, 0, 0
"MV_F0_N2825", 22, 1,    13094.8,  -32.5,    1.0309, 2,    13110.9, -152.3,    1.0322, 3,    13140.4,   87.5,    1.0345
"MV_F0_N713", 22, 1,    12779.4,  -33.7,    1.0061, 2,    12798.3, -153.4,    1.0076, 3,    12842.8,   86.3,    1.0111
"MV_F0_N3487", 22, 1,    11838.4,  -62.7,   0.93203, 0, 0, 0, 0, 0, 0, 0, 0
"MV_F0_N3458", 22, 1,    11838.2,  -62.7,   0.93202, 0, 0, 0, 0, 0, 0, 0, 0
"MV_F0_N2935", 22, 1,      12627, -122.6,   0.99412, 0, 0, 0, 0, 0, 0, 0, 0
"MV_F0_N3651", 22, 1,    12763.2,  -33.7,    1.0048, 2,    12785.8, -153.5,    1.0066, 3,    12824.4,   86.3,    1.0097
"MV_F0_N3653", 22, 1,      12763,  -33.7,    1.0048, 2,    12785.8, -153.5,    1.0066, 3,    12824.2,   86.3,    1.0096
"MV_F0_N3985", 22, 1,    12771.8,  -33.8,    1.0055, 2,    12792.4, -153.5,    1.0071, 3,    12835.7,   86.3,    1.0106
"MV_F0_N2405", 22, 1,    12771.7,  -33.8,    1.0055, 2,    12792.3, -153.5,    1.0071, 3,    12835.6,   86.3,    1.0105
"MV_F0_N2455", 22, 1,    13116.1,  -32.3,    1.0326, 2,    13136.8, -152.2,    1.0343, 3,    13147.3,   87.7,    1.0351
"MV_F0_N2451", 22, 1,    13116.1,  -32.3,    1.0326, 2,    13136.8, -152.2,    1.0343, 3,    13147.3,   87.7,    1.0351
"MV_F0_N3515", 22, 1,    11795.7,  -63.1,   0.92867, 0, 0, 0, 0, 0, 0, 0, 0
"MV_F0_N2248", 22, 1,    11795.5,  -63.1,   0.92865, 0, 0, 0, 0, 0, 0, 0, 0
"MV_F0_N2932", 22, 1,    12742.6,  -32.0,    1.0032, 2,    12772.3, -152.0,    1.0056, 3,    12755.9,   87.9,    1.0043
"MV_F0_N3135", 22, 1,    12742.1,  -32.0,    1.0032, 2,      12772, -152.0,    1.0055, 3,    12755.4,   87.9,    1.0042
"MV_F0_N2430", 22, 1,    12743.5,  -33.3,    1.0033, 2,    12751.3, -153.0,    1.0039, 3,    12801.2,   86.8,    1.0078
"MV_F0_N214", 22, 1,      12742,  -33.3,    1.0032, 2,    12749.3, -153.0,    1.0037, 3,    12799.8,   86.8,    1.0077
"MV_F0_N4002", 22, 1,      12773,  -33.8,    1.0056, 2,    12793.2, -153.5,    1.0072, 3,    12837.1,   86.3,    1.0107
"MV_F0_N3281", 22, 1,      12460,  -32.8,   0.98097, 2,    12651.7, -153.0,   0.99606, 3,    12518.7,   86.3,   0.98559
"MV_F0_N2490", 22, 1,    13116.6,  -32.5,    1.0327, 2,    13137.7, -152.3,    1.0343, 3,    13151.3,   87.5,    1.0354
"MV_F0_N2492", 22, 1,    13116.6,  -32.5,    1.0327, 2,    13137.7, -152.3,    1.0343, 3,    13151.3,   87.5,    1.0354
"MV_F0_N579", 22, 1,    12589.6,  -33.8,   0.99117, 2,    12656.3, -153.4,   0.99642, 3,    12699.2,   86.2,   0.99981
"MV_F0_N589", 22, 1,    12588.7,  -33.8,    0.9911, 2,    12655.6, -153.4,   0.99637, 3,    12698.9,   86.2,   0.99978
"MV_F0_N590", 22, 1,      12738,  -32.0,    1.0029, 2,    12769.3, -152.0,    1.0053, 3,      12751,   87.8,    1.0039
"MV_F0_N2663", 22, 1,    12737.2,  -32.0,    1.0028, 2,    12768.7, -152.0,    1.0053, 3,    12750.2,   87.8,    1.0038
"MV_F0_N2009", 22, 1,    12609.4, -122.6,   0.99273, 0, 0, 0, 0, 0, 0, 0, 0
"MV_F0_N242", 22, 1,    12609.3, -122.6,   0.99272, 0, 0, 0, 0, 0, 0, 0, 0
"MV_F0_N54", 22, 1,    12572.9,   -3.7,   0.98986, 0, 0, 0, 0, 0, 0, 0, 0
"MV_F0_N1826", 22, 1,    12447.8,  -32.8,   0.98001, 2,    12651.7, -153.0,   0.99606, 3,      12507,   86.3,   0.98467
"MV_F0_N3534", 22, 1,    12447.1,  -32.8,   0.97996, 2,    12651.7, -153.0,   0.99606, 3,    12506.4,   86.3,   0.98462
"MV_F0_N2489", 22, 1,    12644.2,  -33.1,   0.99548, 2,      12730, -153.0,    1.0022, 3,    12703.9,   86.6,    1.0002
"MV_F0_N1785", 22, 1,    12632.8,  -33.1,   0.99458, 2,    12723.1, -153.0,    1.0017, 3,    12692.7,   86.6,   0.99929
"MV_F0_N711", 22, 1,    12378.5,  -33.6,   0.97456, 2,    12516.6, -153.3,   0.98542, 3,    12499.7,   86.0,    0.9841
"MV_F0_N4136", 22, 1,    12376.5,  -33.6,   0.97439, 2,    12515.3, -153.3,   0.98533, 3,    12497.6,   86.0,   0.98393
"MV_F0_N2941", 22, 1,    12615.9,  -33.1,   0.99325, 2,    12712.8, -153.0,    1.0009, 3,    12676.2,   86.6,   0.99799
"MV_F0_N3263", 22, 1,    13076.7,  -31.9,    1.0295, 2,      13100, -151.9,    1.0314, 3,    13089.6,   88.0,    1.0305
"MV_F0_N2584", 22, 1,    13076.7,  -31.9,    1.0295, 2,      13100, -151.9,    1.0314, 3,    13089.6,   88.0,    1.0305
"MV_F0_N1480", 22, 1,    12488.6,  -32.9,   0.98322, 2,    12631.7, -153.0,   0.99449, 3,    12550.7,   86.5,   0.98811
"MV_F0_N1446", 22, 1,    12481.4,  -32.9,   0.98266, 2,    12624.2, -153.0,    0.9939, 3,    12543.3,   86.5,   0.98753
"MV_F0_N2532", 22, 1,    13117.2,  -32.7,    1.0327, 2,    13139.1, -152.5,    1.0344, 3,    13156.8,   87.3,    1.0358
"MV_F0_N2533", 22, 1,    13116.2,  -32.7,    1.0326, 2,    13138.2, -152.5,    1.0344, 3,    13156.1,   87.3,    1.0358
"MV_F0_N2748", 22, 1,    11795.4,  -63.1,   0.92865, 0, 0, 0, 0, 0, 0, 0, 0
"MV_F0_N1082", 22, 1,    11795.1,  -63.1,   0.92863, 0, 0, 0, 0, 0, 0, 0, 0
"MV_F0_N703", 22, 1,    13021.9,   -2.0,    1.0252, 0, 0, 0, 0, 0, 0, 0, 0
"MV_F0_N1607", 22, 1,    13019.9,   -2.0,    1.0251, 0, 0, 0, 0, 0, 0, 0, 0
"MV_F0_N655", 22, 1,    13188.3,  -30.4,    1.0383, 2,    13191.4, -150.4,    1.0386, 3,    13192.7,   89.6,    1.0387
"MV_F0_N679", 22, 1,    13187.7,  -30.5,    1.0383, 2,    13190.8, -150.4,    1.0385, 3,    13192.2,   89.5,    1.0386
"MV_F0_N4018", 22, 1,    12771.9,  -33.8,    1.0055, 2,    12792.4, -153.5,    1.0071, 3,    12835.9,   86.3,    1.0106
"MV_F0_N2902", 22, 1,    12629.1, -122.6,   0.99428, 0, 0, 0, 0, 0, 0, 0, 0
"MV_F0_N1058", 22, 1,    12629.1, -122.6,   0.99428, 0, 0, 0, 0, 0, 0, 0, 0
"MV_F0_N873", 22, 1,    12231.6,  115.6,   0.96299, 0, 0, 0, 0, 0, 0, 0, 0
"MV_F0_N3443", 22, 1,    12231.6,  115.6,   0.96299, 0, 0, 0, 0, 0, 0, 0, 0
"MV_F0_N4008", 22, 1,    12741.4,  -32.0,    1.0031, 2,    12771.5, -152.0,    1.0055, 3,    12754.6,   87.9,    1.0042
"MV_F0_N3850", 22, 1,    12740.4,  -32.0,     1.003, 2,    12770.9, -152.0,    1.0054, 3,    12753.6,   87.9,    1.0041
"MV_F0_N1495", 22, 1,    12740.5,  -33.3,    1.0031, 2,    12747.4, -153.0,    1.0036, 3,    12798.6,   86.8,    1.0076
"MV_F0_N2698", 22, 1,    12784.1,  -33.7,    1.0065, 2,    12803.8, -153.4,     1.008, 3,    12847.2,   86.4,    1.0115
"MV_F0_N1406", 22, 1,    12784.1,  -33.7,    1.0065, 2,    12803.8, -153.4,     1.008, 3,    12847.1,   86.4,    1.0114
"MV_F0_N2710", 22, 1,    12601.1,  -33.8,   0.99208, 2,    12664.4, -153.4,   0.99707, 3,    12707.6,   86.2,    1.0005
"MV_F0_N4016", 22, 1,    12593.7,  -33.8,   0.99149, 2,    12659.2, -153.4,   0.99665, 3,    12702.2,   86.2,         1
"MV_F0_N3345", 22, 1,      12739,  -33.3,    1.0029, 2,    12745.6, -153.0,    1.0035, 3,    12797.4,   86.8,    1.0075
"MV_F0_N2016", 22, 1,    12813.5,  -33.4,    1.0088, 2,      12835, -153.2,    1.0105, 3,    12869.9,   86.6,    1.0132
"MV_F0_N1614", 22, 1,    12813.5,  -33.4,    1.0088, 2,      12835, -153.2,    1.0105, 3,    12869.9,   86.6,    1.0132
"MV_F0_N1443", 22, 1,    12502.8,  -32.9,   0.98434, 2,    12646.5, -153.0,   0.99566, 3,    12564.2,   86.5,   0.98918
"MV_F0_N1757", 22, 1,    12496.4,  -32.9,   0.98384, 2,    12639.9, -153.0,   0.99513, 3,    12558.1,   86.5,    0.9887
"MV_F0_N2845", 22, 1,    12812.2,  -33.3,    1.0087, 2,    12834.2, -153.1,    1.0104, 3,    12865.2,   86.8,    1.0129
"MV_F0_N2823", 22, 1,    12812.2,  -33.3,    1.0087, 2,    12834.1, -153.1,    1.0104, 3,    12865.1,   86.8,    1.0129
"MV_F0_N126", 22, 1,    11723.3,  -63.1,   0.92297, 0, 0, 0, 0, 0, 0, 0, 0
"MV_F0_N25", 22, 1,      11723,  -63.1,   0.92295, 0, 0, 0, 0, 0, 0, 0, 0
"MV_F0_N4027", 22, 1,    12772.9,  -33.8,    1.0056, 2,    12793.1, -153.5,    1.0072, 3,      12837,   86.3,    1.0107
...
"BUNGARRA_ISO_3", 22, 1,    13069.9,   -2.4,     1.029, 0, 0, 0, 0, 0, 0, 0, 0
"DAY_ISO_3", 22, 1,    12557.7,   -4.2,   0.98867, 0, 0, 0, 0, 0, 0, 0, 0
"BUNGANAIL_ISO_3", 22, 1,    12242.3,  115.2,   0.96383, 0, 0, 0, 0, 0, 0, 0, 0
"UPTON_RD_ISO_3", 22, 1,    12649.6, -123.1,    0.9959, 0, 0, 0, 0, 0, 0, 0, 0
"JUMPER_NAGAMBIE_REGULATOR_A", 22, 1,    12814.9,  -33.1,    1.0089, 2,    13117.9,  -32.9,    1.0328, 0, 0, 0, 0
"JUMPER_NAGAMBIE_REGULATOR_B", 22, 1,    12836.1, -152.9,    1.0106, 2,      13141, -152.8,    1.0346, 0, 0, 0, 0
"JUMPER_NAGAMBIE_REGULATOR_C", 22, 1,    12862.8,   87.0,    1.0127, 2,    13164.5,   87.1,    1.0364, 0, 0, 0, 0
"TARCOMBE_ROAD_ISO_3", 22, 1,    12659.6, -123.1,   0.99669, 0, 0, 0, 0, 0, 0, 0, 0
"LOCKSLEY_ISO_3", 22, 1,    11855.3,  -62.9,   0.93336, 0, 0, 0, 0, 0, 0, 0, 0
"JUMPER_AVENEL_REGULATOR_A", 22, 1,    12742.7,  -32.0,    1.0032, 2,    13065.2,  -32.0,    1.0286, 0, 0, 0, 0
"JUMPER_AVENEL_REGULATOR_B", 22, 1,    12772.4, -152.0,    1.0056, 2,    13092.3, -152.0,    1.0308, 0, 0, 0, 0
"JUMPER_AVENEL_REGULATOR_C", 22, 1,    12755.9,   87.9,    1.0043, 2,    13077.4,   87.9,    1.0296, 0, 0, 0, 0
"CHARLIES_CREEK_ISO_3", 22, 1,      12253,  -62.7,   0.96467, 0, 0, 0, 0, 0, 0, 0, 0
"DRUMKEEN_ISO_3", 22, 1,    12883.6,  116.3,    1.0143, 0, 0, 0, 0, 0, 0, 0, 0
"MOORMOOL_ISO_3", 22, 1,    12403.8,  116.1,   0.97655, 0, 0, 0, 0, 0, 0, 0, 0
"NISSEN_ISO_3", 22, 1,    11825.3,  -64.0,     0.931, 0, 0, 0, 0, 0, 0, 0, 0
"MV_F0_LV0_BUSBAR", 0.4, 1,    243.941,  177.9,    1.0563, 2,    244.122,   -2.2,    1.0571, 3,  0.0157096, -161.0, 6.8025E-005
"MV_F0_LV1_BUSBAR", 0.4, 1,    244.451,  -63.4,    1.0585, 2,    244.418,  176.9,    1.0584, 3,    245.526,   57.0,    1.0632
"MV_F0_LV2_BUSBAR", 0.4, 1,    252.212,  -63.8,    1.0921, 2,    251.335,  176.4,    1.0883, 3,    252.585,   56.5,    1.0937
"MV_F0_LV3_BUSBAR", 0.4, 1,     244.33,   -2.0,     1.058, 2,    244.475,  178.0,    1.0586, 3,  0.0219586,    8.4, 9.5083E-005
"MV_F0_LV4_BUSBAR", 0.4, 1,    235.092,  -62.8,     1.018, 2,  0.0162953,  -41.7, 7.0561E-005, 3,  0.0162978,  -41.6, 7.0571E-005
"MV_F0_LV5_BUSBAR", 0.4, 1,    243.432,   -3.8,    1.0541, 2,    243.767,  176.0,    1.0555, 3,  0.0318124,   -1.1, 0.00013775
"MV_F0_LV6_BUSBAR", 0.4, 1,    245.568,   -2.0,    1.0633, 2,  0.0155996,   19.1, 6.7548E-005, 3,  0.0156022,   19.2, 6.756E-005
"MV_F0_LV7_BUSBAR", 0.4, 1,    245.582, -121.6,    1.0634, 2,    245.726,   58.3,     1.064, 3,  0.0218466, -111.2, 9.4599E-005
"MV_F0_LV8_BUSBAR", 0.4, 1,    245.994,  -61.8,    1.0652, 2,    245.962,  178.2,     1.065, 3,     246.32,   58.2,    1.0666
"MV_F0_LV9_BUSBAR", 0.4, 1,    245.139,  -62.0,    1.0615, 2,    245.297,  178.1,    1.0622, 3,    245.213,   57.9,    1.0618
"MV_F0_LV10_BUSBAR", 0.4, 1,    243.023,  -64.1,    1.0523, 2,    242.178,  176.3,    1.0487, 3,     243.32,   56.1,    1.0536
"MV_F0_LV11_BUSBAR", 0.4, 1,    235.178,  -62.8,    1.0184, 2,  0.0162893,  -41.7, 7.0535E-005, 3,  0.0162918,  -41.6, 7.0546E-005
"MV_F0_LV12_BUSBAR", 0.4, 1,    242.073,  115.4,    1.0482, 2,  0.0221608,  125.9, 9.5959E-005, 3,  0.0221541,  125.9, 9.593E-005
"MV_F0_LV13_BUSBAR", 0.4, 1,    245.666, -123.2,    1.0638, 2,    245.889,   56.7,    1.0647, 3,  0.0218392, -112.8, 9.4566E-005
"MV_F0_LV14_BUSBAR", 0.4, 1,    235.941, -122.9,    1.0217, 2,  0.0840131, -130.2, 0.00036379, 3,   0.084009, -130.2, 0.00036377
"MV_F0_LV15_BUSBAR", 0.4, 1,    233.188,  -63.2,    1.0097, 2,  0.0164284,  -42.0, 7.1137E-005, 3,  0.0164309,  -42.0, 7.1148E-005
"MV_F0_LV16_BUSBAR", 0.4, 1,     250.14,  -62.2,    1.0831, 2,    250.665,  177.9,    1.0854, 3,    250.886,   57.8,    1.0864
"MV_F0_LV17_BUSBAR", 0.4, 1,     244.18,   -2.0,    1.0573, 2,     244.36,  177.9,    1.0581, 3,  0.0156943,   19.2, 6.7958E-005
"MV_F0_LV18_BUSBAR", 0.4, 1,    244.162,   -2.2,    1.0573, 2,  0.0219712,    8.2, 9.5138E-005, 3,  0.0219644,    8.2, 9.5109E-005
"MV_F0_LV19_BUSBAR", 0.4, 1,    244.677,   -2.5,    1.0595, 2,    244.857,  177.4,    1.0603, 3,  0.0156624,   18.6, 6.782E-005
"MV_F0_LV20_BUSBAR", 0.4, 1,    245.395,   -2.0,    1.0626, 2,  0.0156106,   19.1, 6.7596E-005, 3,  0.0156132,   19.1, 6.7607E-005
"MV_F0_LV21_BUSBAR", 0.4, 1,    246.328,  -61.4,    1.0666, 2,     246.29,  178.6,    1.0665, 3,    246.552,   58.6,    1.0676
"MV_F0_LV22_BUSBAR", 0.4, 1,    242.494,   -3.8,      1.05, 2,  0.0157975,   17.4, 6.8405E-005, 3,  0.0158001,   17.4, 6.8416E-005
"MV_F0_LV23_BUSBAR", 0.4, 1,    244.634,  -62.7,    1.0593, 2,    244.989,  117.1,    1.0608, 3,  0.0219313,  -52.3, 9.4965E-005
"MV_F0_LV24_BUSBAR", 0.4, 1,    231.727,  -62.6,    1.0034, 2,    231.879,  117.3,    1.0041, 3,  0.0231529,  -52.2, 0.00010025
"MV_F0_LV25_BUSBAR", 0.4, 1,     232.99,  -62.5,    1.0089, 2,    233.068,  117.4,    1.0092, 3,   0.016448,  -41.4, 7.1222E-005
"MV_F0_LV26_BUSBAR", 0.4, 1,    242.554,   -3.6,    1.0503, 2,    242.629,  176.4,    1.0506, 3,  0.0157995,   17.6, 6.8414E-005
"MV_F0_LV27_BUSBAR", 0.4, 1,    242.902,  115.6,    1.0518, 2,   0.015771,  136.7, 6.829E-005, 3,  0.0157735,  136.7, 6.8301E-005
"MV_F0_LV28_BUSBAR", 0.4, 1,    242.084,  115.4,    1.0483, 2,  0.0221598,  125.9, 9.5955E-005, 3,  0.0221532,  125.9, 9.5926E-005
"MV_F0_LV29_BUSBAR", 0.4, 1,    243.647,   -3.3,     1.055, 2,    244.004,  176.5,    1.0566, 3,  0.0615211,   -8.6, 0.00026639
"MV_F0_LV30_BUSBAR", 0.4, 1,    244.263,  -62.2,    1.0577, 2,    242.831,  177.7,    1.0515, 3,    244.015,   57.7,    1.0566
"MV_F0_LV31_BUSBAR", 0.4, 1,    235.753, -122.9,    1.0208, 2,   0.022755, -112.5, 9.8532E-005, 3,  0.0227485, -112.5, 9.8504E-005
"MV_F0_LV32_BUSBAR", 0.4, 1,    238.398,   57.7,    1.0323, 2,    238.515, -122.4,    1.0328, 3,  0.0160749,   78.8, 6.9606E-005
"MV_F0_LV33_BUSBAR", 0.4, 1,    245.399,   -2.0,    1.0626, 2,  0.0156103,   19.1, 6.7595E-005, 3,   0.015613,   19.1, 6.7606E-005
"MV_F0_LV34_BUSBAR", 0.4, 1,    245.104,  178.7,    1.0613, 2,    245.459,   -1.5,    1.0629, 3,  0.0218892, -170.9, 9.4783E-005
"MV_F0_LV35_BUSBAR", 0.4, 1,    237.406,  -62.6,     1.028, 2,    237.772,  117.2,    1.0296, 3,   0.022599,  -52.2, 9.7856E-005
"MV_F0_LV36_BUSBAR", 0.4, 1,    245.045,  -63.9,    1.0611, 2,    243.455,  176.2,    1.0542, 3,    245.338,   56.3,    1.0623
"MV_F0_LV37_BUSBAR", 0.4, 1,    247.459,  -60.2,    1.0715, 2,    245.606,  179.6,    1.0635, 3,    247.471,   59.8,    1.0716
"MV_F0_LV38_BUSBAR", 0.4, 1,    244.691,  117.1,    1.0595, 2,    245.046,  -63.1,    1.0611, 3,  0.0219262,  127.5, 9.4943E-005
"MV_F0_LV39_BUSBAR", 0.4, 1,    236.484,  -62.5,     1.024, 2,     236.67,  117.4,    1.0248, 3,   0.016205,  -41.4, 7.017E-005
"MV_F0_LV40_BUSBAR", 0.4, 1,    243.161,  117.7,    1.0529, 2,    243.342,  -62.4,    1.0537, 3,    0.01576,  138.9, 6.8243E-005
"MV_F0_LV41_BUSBAR", 0.4, 1,    239.809,  176.3,    1.0384, 2,    240.172,   -3.9,      1.04, 3,  0.0223725, -173.3, 9.6876E-005
"MV_F0_LV42_BUSBAR", 0.4, 1,    242.648,  115.5,    1.0507, 2,  0.0157875,  136.7, 6.8362E-005, 3,  0.0157901,  136.7, 6.8373E-005
"MV_F0_LV43_BUSBAR", 0.4, 1,    244.958,  -63.4,    1.0607, 2,    242.325,  176.5,    1.0493, 3,      245.3,   56.8,    1.0622
"MV_F0_LV44_BUSBAR", 0.4, 1,    243.503,  -62.3,    1.0544, 2,    243.684,  117.6,    1.0552, 3,  0.0157379,  -41.1, 6.8147E-005
"MV_F0_LV45_BUSBAR", 0.4, 1,    235.736, -122.9,    1.0208, 2,  0.0227567, -112.5, 9.8539E-005, 3,  0.0227502, -112.5, 9.8511E-005
"MV_F0_LV46_BUSBAR", 0.4, 1,    244.797,  176.4,      1.06, 2,    244.872,   -3.6,    1.0603, 3,  0.0156547, -162.5, 6.7787E-005
"MV_F0_LV47_BUSBAR", 0.4, 1,    245.641,   -2.0,    1.0637, 2,  0.0155949,   19.1, 6.7528E-005, 3,  0.0155975,   19.2, 6.7539E-005
"MV_F0_LV48_BUSBAR", 0.4, 1,    245.141,  -63.9,    1.0615, 2,    244.701,  176.4,    1.0596, 3,    245.803,   56.4,    1.0644
"MV_F0_LV49_BUSBAR", 0.4, 1,    246.193, -121.0,     1.066, 2,    246.371,   58.9,    1.0668, 3,   0.015566,  -99.8, 6.7403E-005
"MV_F0_LV50_BUSBAR", 0.4, 1,    246.097,  -63.8,    1.0656, 2,    244.785,  176.4,      1.06, 3,    246.007,   56.4,    1.0652
"MV_F0_LV51_BUSBAR", 0.4, 1,    245.994,  -61.8,    1.0652, 2,    245.962,  178.2,     1.065, 3,     246.32,   58.2,    1.0666
"MV_F0_LV52_BUSBAR", 0.4, 1,    246.207,  -60.4,    1.0661, 2,      245.5,  179.6,     1.063, 3,    245.297,   59.5,    1.0622
...